192
water_7.6.pdb
O          0.00000       -1.20700        1.20700
H         -0.36500       -2.01200        1.57500
H          0.04500       -1.36400        0.26400
O          0.23200        1.07600       -1.30800
H          0.82800        1.35300       -2.00300
H         -0.59900        1.50900       -1.50600
O         -2.27400        1.30300        0.97100
H         -1.73700        1.62400        1.69600
H         -1.82900        0.51300        0.66400
O         -2.27200       -1.22400       -1.32200
H         -2.13600       -0.41400       -1.81300
H         -2.26500       -0.96100       -0.40200
O          0.93500        1.98200        1.88500
H          1.34700        1.12200        1.81400
H          1.28900        2.36100        2.68900
O          0.95300       -2.18200       -1.89300
H          0.17200       -1.77900       -2.27200
H          0.73700       -2.32200       -0.97100
O          3.00000       -0.18800        0.10400
H          3.27200        0.07600        0.98300
H          3.77500       -0.06200       -0.44400
O          2.87100        0.26700       -3.26400
H          2.49700        1.14600       -3.20000
H          2.18900       -0.31700       -2.93200
O          2.48000       -0.62100        3.43500
H          1.84000       -1.33200        3.46100
H          2.84200       -0.64600        2.54900
O          2.54200       -3.35300        1.05200
H          2.22500       -2.73000        0.39800
H          1.79100       -3.51800        1.62100
O         -0.72400        4.10800       -0.17900
H         -0.68400        4.39700       -1.09100
H         -0.81400        3.15700       -0.22500
O         -0.91800        0.24900        4.05600
H         -0.86700       -0.53000        4.61100
H         -0.14000        0.20900        3.50100
O         -3.15100       -1.72800        2.09400
H         -2.60400       -2.42900        2.44800
H         -2.73300       -0.91700        2.38400
O          2.76000        3.10100       -0.78300
H          3.70200        2.93100       -0.76800
H          2.62500        3.80600       -0.15000
O         -2.78800        2.11700       -2.23500
H         -2.62700        2.92500       -2.72200
H         -3.72800        1.96100       -2.31800
O         -0.66500       -0.19500       -4.18200
H         -1.12100       -0.15700       -5.02300
H         -0.54600        0.71900       -3.92400
O         -1.06500       -4.09600        0.12000
H         -1.63500       -4.08300        0.88900
H         -0.29600       -3.58400        0.37300
O          0.32600        3.36900       -3.54900
H          0.21700        2.56200       -4.05100
H         -0.37000        3.34900       -2.89300
O         -0.03000       -3.22900        3.69400
H          0.45200       -3.98000        3.34800
H         -0.33400       -3.50700        4.55800
O         -1.60600        3.63800        3.24400
H         -1.96200        3.04900        3.91000
H         -0.86900        4.07700        3.67000
O          4.27600       -2.58000       -1.85200
H          4.87400       -1.90800       -1.52400
H          4.78500       -3.39000       -1.84400
O          4.25700        2.09500        2.19000
H          4.69700        1.67400        1.45200
H          4.44700        1.53500        2.94300
O         -4.39000       -3.66900       -0.38600
H         -4.10000       -3.64200       -1.29700
H         -4.86700       -4.49500       -0.30200
O         -5.13300       -0.08500       -0.17700
H         -4.40900       -0.37200       -0.73400
H         -5.11200       -0.67200        0.57800
O         -4.06800        3.97900        0.40900
H         -4.87400        4.14900        0.89600
H         -3.76200        4.84200        0.12800
O         -4.44600       -0.44500       -3.64600
H         -4.62000       -1.38500       -3.69600
H         -3.84000       -0.26700       -4.36500
O         -1.75200       -3.70200       -3.33000
H         -2.50800       -3.16200       -3.56200
H         -2.07500       -4.30900       -2.66500
O         -4.23000        1.24600        3.54300
H         -5.15600        1.10900        3.34500
H         -3.81900        0.39200        3.40800
O          5.56300        1.23500       -1.33900
H          4.69800        1.04600       -1.70400
H          5.42800        1.98500       -0.75900
O          1.65600        2.28300        5.05300
H          2.29500        1.65700        4.71200
H          0.90600        1.75100        5.32000
O          1.91400        5.04900        1.97000
H          2.23700        5.94800        1.91100
H          2.65300        4.50200        1.70100
O          1.67500       -5.35400       -1.54600
H          1.86800       -6.24700       -1.83300
H          1.34500       -5.44800       -0.65200
O          1.79900       -2.51800       -5.00200
H          2.63200       -2.97600       -5.11900
H          2.01300       -1.74200       -4.48500
O          5.43600       -1.43300        1.79700
H          5.33800       -1.19300        0.87600
H          4.63600       -1.91200        2.01500
O         -2.44700        2.27300       -5.51800
H         -2.59000        2.37700       -4.57700
H         -1.52500        2.49500       -5.65400
O         -2.87100       -2.08300        5.38600
H         -2.37000       -2.71700        4.87300
H         -2.77100       -2.36700        6.29500
O          1.43800        1.43200       -6.10800
H          1.59100        1.63200       -5.18400
H          0.50900        1.20900       -6.16200
O          3.68600        3.35400       -4.02000
H          4.47400        2.84100       -3.84100
H          2.96000        2.80200       -3.73100
O          0.87800       -1.25300        6.34600
H          0.75000       -2.06900        5.86300
H          1.82700       -1.13900        6.39400
O         -2.40000        5.31200       -2.85800
H         -3.18700        5.85500       -2.81500
H         -2.70900        4.45000       -3.13700
O         -2.88000       -4.89300        2.87000
H         -3.46500       -5.27900        3.52100
H         -2.43400       -4.18100        3.33000
O          0.76300       -6.06400        1.99900
H          0.21900       -5.27900        1.93800
H          1.66300       -5.73900        2.03700
O          1.47700        5.99400       -1.80600
H          2.09200        6.20400       -2.50900
H          1.76500        5.14400       -1.47100
O          4.78000        0.83400        5.28500
H          4.98200        0.70800        6.21200
H          5.39900        0.27300        4.81800
O          3.23400       -3.70600        4.31400
H          3.48200       -3.04400        3.66900
H          3.22200       -3.24300        5.15200
O         -1.55800        2.40200        6.41400
H         -0.67500        2.22100        6.73700
H         -1.43300        2.98300        5.66400
O         -1.32400       -2.47000       -6.46400
H         -0.63600       -3.12100       -6.60000
H         -2.05700       -2.76800       -7.00200
O         -1.45600       -6.73400       -1.79100
H         -2.34500       -6.38100       -1.84000
H         -0.90600       -6.08100       -2.22400
O         -1.14100        6.67300        1.81000
H         -1.93000        7.19400        1.66600
H         -0.70200        7.08800        2.55300
O         -6.72900        2.29400        1.56100
H         -7.00300        1.43600        1.23500
H         -5.79400        2.34700        1.36300
O          5.52000       -4.63600        0.58500
H          4.62100       -4.55600        0.26600
H          6.04100       -4.08900       -0.00200
O          5.89500       -0.68100       -4.15900
H          6.19800       -1.06500       -3.33600
H          4.98200       -0.95500       -4.24000
O          0.52400       -5.63200       -4.68100
H          0.44200       -6.26700       -3.96900
H         -0.30700       -5.68200       -5.15400
O         -5.04400       -3.73900       -3.68100
H         -4.32200       -3.11600       -3.76800
H         -4.63100       -4.60200       -3.70200
O         -6.40000       -1.95800        2.28000
H         -6.33400       -2.66500        2.92200
H         -5.52400       -1.88500        1.90100
O         -6.05300        2.54900       -1.96400
H         -6.54500        3.36100       -2.08600
H         -5.15100        2.76800       -2.19500
O          4.92500        5.41300       -1.58000
H          5.47600        6.19000       -1.48500
H          4.32500        5.44200       -0.83500
O          4.15300        4.41600        4.54500
H          4.60100        4.82300        5.28600
H          3.85900        5.14700        4.00100
O          3.84500       -5.00900       -4.08700
H          3.05300       -4.57600       -3.76900
H          4.08000       -5.63300       -3.40000
O         -4.86200        4.51100        3.57800
H         -4.57500        4.94200        2.77200
H         -4.06000        4.17200        3.97600
O          0.56500        5.42500        4.98600
H          0.38100        4.93700        4.18300
H          1.30700        5.98900        4.76800
O          7.40300        1.28200        1.51600
H          7.62700        0.76800        2.29200
H          6.55700        1.68200        1.72000
O          7.30600       -1.57800       -0.94800
H          6.40200       -1.55800       -0.63500
H          7.69100       -2.35500       -0.54200
O          5.47200        5.06400        1.59800
H          4.92200        5.84100        1.49500
H          5.48800        4.65500        0.73300
